
#######################################################################
#
#                 Cambridge Crystallographic Data Centre
#                                CCDC 
#
#######################################################################
#
# If this CIF has been generated from an entry in the Cambridge 
# Structural Database, then it will include bibliographic, chemical, 
# crystal, experimental, refinement or atomic coordinate data resulting 
# from the CCDC's data processing and validation procedures.
#
#######################################################################

data_ACRDIN04
_symmetry_cell_setting           monoclinic
_symmetry_space_group_name_H-M   'P 21/n'
_symmetry_Int_Tables_number      14
_space_group_name_Hall           '-P 2yn'
loop_
_symmetry_equiv_pos_site_id
_symmetry_equiv_pos_as_xyz
1 x,y,z
2 1/2-x,1/2+y,1/2-z
3 -x,-y,-z
4 1/2+x,1/2-y,1/2+z
_cell_length_a                   11.2527(10)
_cell_length_b                   5.9510(5)
_cell_length_c                   13.6018(12)
_cell_angle_alpha                90
_cell_angle_beta                 99.527(2)
_cell_angle_gamma                90
_cell_volume                     898.279
loop_
_atom_site_label
_atom_site_type_symbol
_atom_site_fract_x
_atom_site_fract_y
_atom_site_fract_z
N1 N 0.06931(7) 0.77563(14) 0.10888(6)
C1 C 0.25810(10) 1.1249(2) -0.03229(8)
C2 C 0.26576(11) 0.9811(2) -0.10853(9)
C3 C 0.20519(10) 0.7715(2) -0.11468(8)
C4 C 0.13940(10) 0.7065(2) -0.04428(8)
C5 C 0.00010(9) 0.8330(2) 0.26348(8)
C6 C -0.00682(10) 0.9617(2) 0.34504(8)
C7 C 0.04754(10) 1.1772(2) 0.35590(8)
C8 C 0.10700(9) 1.25923(19) 0.28441(8)
C9 C 0.18037(9) 1.20351(17) 0.12429(8)
C10 C 0.19034(9) 1.06466(17) 0.04377(7)
C11 C 0.13144(9) 0.84993(17) 0.03878(7)
C12 C 0.06324(8) 0.91095(17) 0.18734(7)
C13 C 0.11765(8) 1.12931(17) 0.19811(7)
H1 H 0.2982(11) 1.273(2) -0.0284(10)
H2 H 0.3137(13) 1.023(2) -0.1600(10)
H3 H 0.2113(12) 0.671(2) -0.1683(11)
H4 H 0.0971(11) 0.564(2) -0.0494(9)
H5 H -0.0365(11) 0.682(2) 0.2541(9)
H6 H -0.0488(12) 0.908(2) 0.3983(10)
H7 H 0.0412(12) 1.271(2) 0.4144(10)
H8 H 0.1441(11) 1.408(2) 0.2898(9)
H9 H 0.2180(11) 1.355(2) 0.1273(9)
N1 N 0.43069(7) 0.27563(14) 0.39112(6)
C1 C 0.24190(10) 0.6249(2) 0.53229(8)
C2 C 0.23424(11) 0.4811(2) 0.60853(9)
C3 C 0.29481(10) 0.2715(2) 0.61468(8)
C4 C 0.36060(10) 0.2065(2) 0.54428(8)
C5 C 0.49990(9) 0.3330(2) 0.23652(8)
C6 C 0.50682(10) 0.4617(2) 0.15496(8)
C7 C 0.45246(10) 0.6772(2) 0.14410(8)
C8 C 0.39300(9) 0.75923(19) 0.21559(8)
C9 C 0.31963(9) 0.70351(17) 0.37571(8)
C10 C 0.30966(9) 0.56466(17) 0.45623(7)
C11 C 0.36856(9) 0.34993(17) 0.46122(7)
C12 C 0.43676(8) 0.41095(17) 0.31266(7)
C13 C 0.38235(8) 0.62931(17) 0.30189(7)
H1 H 0.2018(11) 0.773(2) 0.5284(10)
H2 H 0.1863(13) 0.523(2) 0.6600(10)
H3 H 0.2887(12) 0.171(2) 0.6683(11)
H4 H 0.4029(11) 0.064(2) 0.5494(9)
H5 H 0.5365(11) 0.182(2) 0.2459(9)
H6 H 0.5488(12) 0.408(2) 0.1017(10)
H7 H 0.4588(12) 0.771(2) 0.0856(10)
H8 H 0.3559(11) 0.908(2) 0.2102(9)
H9 H 0.2820(11) 0.855(2) 0.3727(9)
N1 N 0.93069(7) 0.22437(14) 0.89112(6)
C1 C 0.74190(10) -0.1249(2) 1.03229(8)
C2 C 0.73424(11) 0.0189(2) 1.10853(9)
C3 C 0.79481(10) 0.2285(2) 1.11468(8)
C4 C 0.86060(10) 0.2935(2) 1.04428(8)
C5 C 0.99990(9) 0.1670(2) 0.73652(8)
C6 C 1.00682(10) 0.0383(2) 0.65496(8)
C7 C 0.95246(10) -0.1772(2) 0.64410(8)
C8 C 0.89300(9) -0.25923(19) 0.71559(8)
C9 C 0.81963(9) -0.20351(17) 0.87571(8)
C10 C 0.80966(9) -0.06466(17) 0.95623(7)
C11 C 0.86856(9) 0.15007(17) 0.96122(7)
C12 C 0.93676(8) 0.08905(17) 0.81266(7)
C13 C 0.88235(8) -0.12931(17) 0.80189(7)
H1 H 0.7018(11) -0.273(2) 1.0284(10)
H2 H 0.6863(13) -0.023(2) 1.1600(10)
H3 H 0.7887(12) 0.329(2) 1.1683(11)
H4 H 0.9029(11) 0.436(2) 1.0494(9)
H5 H 1.0365(11) 0.318(2) 0.7459(9)
H6 H 1.0488(12) 0.092(2) 0.6017(10)
H7 H 0.9588(12) -0.271(2) 0.5856(10)
H8 H 0.8559(11) -0.408(2) 0.7102(9)
H9 H 0.7820(11) -0.355(2) 0.8727(9)
N1 N 0.56931(7) 0.72437(14) 0.60888(6)
C1 C 0.75810(10) 0.3751(2) 0.46771(8)
C2 C 0.76576(11) 0.5189(2) 0.39147(9)
C3 C 0.70519(10) 0.7285(2) 0.38532(8)
C4 C 0.63940(10) 0.7935(2) 0.45572(8)
C5 C 0.50010(9) 0.6670(2) 0.76348(8)
C6 C 0.49318(10) 0.5383(2) 0.84504(8)
C7 C 0.54754(10) 0.3228(2) 0.85590(8)
C8 C 0.60700(9) 0.24077(19) 0.78441(8)
C9 C 0.68037(9) 0.29649(17) 0.62429(8)
C10 C 0.69034(9) 0.43534(17) 0.54377(7)
C11 C 0.63144(9) 0.65007(17) 0.53878(7)
C12 C 0.56324(8) 0.58905(17) 0.68734(7)
C13 C 0.61765(8) 0.37069(17) 0.69811(7)
H1 H 0.7982(11) 0.227(2) 0.4716(10)
H2 H 0.8137(13) 0.477(2) 0.3400(10)
H3 H 0.7113(12) 0.829(2) 0.3317(11)
H4 H 0.5971(11) 0.936(2) 0.4506(9)
H5 H 0.4635(11) 0.818(2) 0.7541(9)
H6 H 0.4512(12) 0.592(2) 0.8983(10)
H7 H 0.5412(12) 0.229(2) 0.9144(10)
H8 H 0.6441(11) 0.092(2) 0.7898(9)
H9 H 0.7180(11) 0.145(2) 0.6273(9)

#END
