
#######################################################################
#
#                 Cambridge Crystallographic Data Centre
#                                CCDC 
#
#######################################################################
#
# If this CIF has been generated from an entry in the Cambridge 
# Structural Database, then it will include bibliographic, chemical, 
# crystal, experimental, refinement or atomic coordinate data resulting 
# from the CCDC's data processing and validation procedures.
#
#######################################################################

data_ACRDIN08
_symmetry_cell_setting           orthorhombic
_symmetry_space_group_name_H-M   'P 21 21 21'
_symmetry_Int_Tables_number      19
_space_group_name_Hall           'P 2ac 2ab'
loop_
_symmetry_equiv_pos_site_id
_symmetry_equiv_pos_as_xyz
1 x,y,z
2 1/2-x,-y,1/2+z
3 1/2+x,1/2-y,-z
4 -x,1/2+y,1/2-z
_cell_length_a                   6.1788(5)
_cell_length_b                   15.7185(16)
_cell_length_c                   29.312(3)
_cell_angle_alpha                90
_cell_angle_beta                 90
_cell_angle_gamma                90
_cell_volume                     2846.82
loop_
_atom_site_label
_atom_site_type_symbol
_atom_site_fract_x
_atom_site_fract_y
_atom_site_fract_z
C1 C 0.9472(4) 0.91769(17) 0.16410(9)
C2 C 0.7946(4) 0.86011(17) 0.17835(9)
H1 H 0.6636 0.8563 0.1628
C3 C 1.1458(4) 0.92047(16) 0.18846(9)
N1 N 1.1885(3) 0.86949(14) 0.22421(7)
C4 C 1.3047(4) 0.97935(17) 0.17455(9)
H2 H 1.4350 0.9824 0.1904
C5 C 1.0365(4) 0.81437(17) 0.23723(9)
C6 C 0.8321(4) 0.80757(17) 0.21536(9)
C7 C 1.0775(4) 0.76000(19) 0.27460(10)
H3 H 1.2106 0.7630 0.2893
C8 C 0.9180(4) 0.97431(19) 0.12677(9)
H4 H 0.7886 0.9733 0.1106
C9 C 0.6790(4) 0.74759(18) 0.23228(10)
H5 H 0.5446 0.7426 0.2182
C10 C 0.7267(5) 0.6982(2) 0.26823(12)
H6 H 0.6245 0.6598 0.2792
C11 C 0.9290(5) 0.7041(2) 0.28934(11)
H7 H 0.9611 0.6689 0.3139
C12 C 1.0741(5) 1.02922(19) 0.11449(10)
H8 H 1.0523 1.0658 0.0900
C13 C 1.2710(4) 1.03130(18) 0.13875(10)
H9 H 1.3790 1.0691 0.1299
C1 C 0.5528(4) 0.08231(17) 0.66410(9)
C2 C 0.7054(4) 0.13989(17) 0.67835(9)
H1 H 0.8364 0.1437 0.6628
C3 C 0.3542(4) 0.07953(16) 0.68846(9)
N1 N 0.3115(3) 0.13051(14) 0.72421(7)
C4 C 0.1953(4) 0.02065(17) 0.67455(9)
H2 H 0.0650 0.0176 0.6904
C5 C 0.4635(4) 0.18563(17) 0.73723(9)
C6 C 0.6679(4) 0.19243(17) 0.71536(9)
C7 C 0.4225(4) 0.24000(19) 0.77460(10)
H3 H 0.2894 0.2370 0.7893
C8 C 0.5820(4) 0.02569(19) 0.62677(9)
H4 H 0.7114 0.0267 0.6106
C9 C 0.8210(4) 0.25241(18) 0.73228(10)
H5 H 0.9554 0.2574 0.7182
C10 C 0.7733(5) 0.3018(2) 0.76823(12)
H6 H 0.8755 0.3402 0.7792
C11 C 0.5710(5) 0.2959(2) 0.78934(11)
H7 H 0.5389 0.3311 0.8139
C12 C 0.4259(5) -0.02922(19) 0.61449(10)
H8 H 0.4477 -0.0658 0.5900
C13 C 0.2290(4) -0.03130(18) 0.63875(10)
H9 H 0.1210 -0.0691 0.6299
C1 C 0.4472(4) 0.58231(17) 0.83590(9)
C2 C 0.2946(4) 0.63989(17) 0.82165(9)
H1 H 0.1636 0.6437 0.8372
C3 C 0.6458(4) 0.57953(16) 0.81154(9)
N1 N 0.6885(3) 0.63051(14) 0.77579(7)
C4 C 0.8047(4) 0.52065(17) 0.82545(9)
H2 H 0.9350 0.5176 0.8096
C5 C 0.5365(4) 0.68563(17) 0.76277(9)
C6 C 0.3321(4) 0.69243(17) 0.78464(9)
C7 C 0.5775(4) 0.74000(19) 0.72540(10)
H3 H 0.7106 0.7370 0.7107
C8 C 0.4180(4) 0.52569(19) 0.87323(9)
H4 H 0.2886 0.5267 0.8894
C9 C 0.1790(4) 0.75241(18) 0.76772(10)
H5 H 0.0446 0.7574 0.7818
C10 C 0.2267(5) 0.8018(2) 0.73177(12)
H6 H 0.1245 0.8402 0.7208
C11 C 0.4290(5) 0.7959(2) 0.71066(11)
H7 H 0.4611 0.8311 0.6861
C12 C 0.5741(5) 0.47078(19) 0.88551(10)
H8 H 0.5523 0.4342 0.9100
C13 C 0.7710(4) 0.46870(18) 0.86125(10)
H9 H 0.8790 0.4309 0.8701
C1 C 0.0528(4) 0.41769(17) 0.33590(9)
C2 C 0.2054(4) 0.36011(17) 0.32165(9)
H1 H 0.3364 0.3563 0.3372
C3 C -0.1458(4) 0.42047(16) 0.31154(9)
N1 N -0.1885(3) 0.36949(14) 0.27579(7)
C4 C -0.3047(4) 0.47935(17) 0.32545(9)
H2 H -0.4350 0.4824 0.3096
C5 C -0.0365(4) 0.31437(17) 0.26277(9)
C6 C 0.1679(4) 0.30757(17) 0.28464(9)
C7 C -0.0775(4) 0.26000(19) 0.22540(10)
H3 H -0.2106 0.2630 0.2107
C8 C 0.0820(4) 0.47431(19) 0.37323(9)
H4 H 0.2114 0.4733 0.3894
C9 C 0.3210(4) 0.24759(18) 0.26772(10)
H5 H 0.4554 0.2426 0.2818
C10 C 0.2733(5) 0.1982(2) 0.23177(12)
H6 H 0.3755 0.1598 0.2208
C11 C 0.0710(5) 0.2041(2) 0.21066(11)
H7 H 0.0389 0.1689 0.1861
C12 C -0.0741(5) 0.52922(19) 0.38551(10)
H8 H -0.0523 0.5658 0.4100
C13 C -0.2710(4) 0.53130(18) 0.36125(10)
H9 H -0.3790 0.5691 0.3701
N2 N 0.2941(3) 0.63017(14) 0.45210(7)
C14 C 0.4292(4) 0.68773(18) 0.43370(10)
C15 C 0.3637(4) 0.58467(17) 0.48788(9)
C16 C 0.5727(4) 0.59444(18) 0.50714(10)
C17 C 0.6418(4) 0.70082(18) 0.45059(10)
C18 C 0.7072(4) 0.65317(19) 0.48739(10)
H10 H 0.8456 0.6609 0.4991
C19 C 0.2216(4) 0.52477(18) 0.50778(9)
H11 H 0.0851 0.5164 0.4952
C20 C 0.3585(5) 0.73582(19) 0.39598(10)
H12 H 0.2203 0.7271 0.3843
C21 C 0.2816(5) 0.47970(18) 0.54475(10)
H13 H 0.1849 0.4413 0.5577
C22 C 0.6287(4) 0.5444(2) 0.54605(10)
H14 H 0.7655 0.5500 0.5590
C23 C 0.6994(6) 0.8070(2) 0.39296(13)
H15 H 0.7890 0.8468 0.3789
C24 C 0.4890(5) 0.7945(2) 0.37649(10)
H16 H 0.4389 0.8266 0.3520
C25 C 0.4873(5) 0.4899(2) 0.56405(11)
H17 H 0.5256 0.4583 0.5896
C26 C 0.7727(5) 0.7626(2) 0.42857(12)
H18 H 0.9123 0.7724 0.4392
N2 N 1.2059(3) 0.36983(14) 0.95210(7)
C14 C 1.0708(4) 0.31227(18) 0.93370(10)
C15 C 1.1363(4) 0.41533(17) 0.98788(9)
C16 C 0.9273(4) 0.40556(18) 1.00714(10)
C17 C 0.8582(4) 0.29918(18) 0.95059(10)
C18 C 0.7928(4) 0.34683(19) 0.98739(10)
H10 H 0.6544 0.3391 0.9991
C19 C 1.2784(4) 0.47523(18) 1.00778(9)
H11 H 1.4149 0.4836 0.9952
C20 C 1.1415(5) 0.26418(19) 0.89598(10)
H12 H 1.2797 0.2729 0.8843
C21 C 1.2184(5) 0.52030(18) 1.04475(10)
H13 H 1.3151 0.5587 1.0577
C22 C 0.8713(4) 0.4556(2) 1.04605(10)
H14 H 0.7345 0.4500 1.0590
C23 C 0.8006(6) 0.1930(2) 0.89296(13)
H15 H 0.7110 0.1532 0.8789
C24 C 1.0110(5) 0.2055(2) 0.87649(10)
H16 H 1.0611 0.1734 0.8520
C25 C 1.0127(5) 0.5101(2) 1.06405(11)
H17 H 0.9744 0.5417 1.0896
C26 C 0.7273(5) 0.2374(2) 0.92857(12)
H18 H 0.5877 0.2276 0.9392
N2 N -0.2059(3) 0.86983(14) 0.54790(7)
C14 C -0.0708(4) 0.81227(18) 0.56630(10)
C15 C -0.1363(4) 0.91533(17) 0.51212(9)
C16 C 0.0727(4) 0.90556(18) 0.49286(10)
C17 C 0.1418(4) 0.79918(18) 0.54941(10)
C18 C 0.2072(4) 0.84683(19) 0.51261(10)
H10 H 0.3456 0.8391 0.5009
C19 C -0.2784(4) 0.97523(18) 0.49222(9)
H11 H -0.4149 0.9836 0.5048
C20 C -0.1415(5) 0.76418(19) 0.60402(10)
H12 H -0.2797 0.7729 0.6157
C21 C -0.2184(5) 1.02030(18) 0.45525(10)
H13 H -0.3151 1.0587 0.4423
C22 C 0.1287(4) 0.9556(2) 0.45395(10)
H14 H 0.2655 0.9500 0.4410
C23 C 0.1994(6) 0.6930(2) 0.60704(13)
H15 H 0.2890 0.6532 0.6211
C24 C -0.0110(5) 0.7055(2) 0.62351(10)
H16 H -0.0611 0.6734 0.6480
C25 C -0.0127(5) 1.0101(2) 0.43595(11)
H17 H 0.0256 1.0417 0.4104
C26 C 0.2727(5) 0.7374(2) 0.57143(12)
H18 H 0.4123 0.7276 0.5608
N2 N 0.7059(3) 0.13017(14) 0.04790(7)
C14 C 0.5708(4) 0.18773(18) 0.06630(10)
C15 C 0.6363(4) 0.08467(17) 0.01212(9)
C16 C 0.4273(4) 0.09444(18) -0.00714(10)
C17 C 0.3582(4) 0.20082(18) 0.04941(10)
C18 C 0.2928(4) 0.15317(19) 0.01261(10)
H10 H 0.1544 0.1609 0.0009
C19 C 0.7784(4) 0.02477(18) -0.00778(9)
H11 H 0.9149 0.0164 0.0048
C20 C 0.6415(5) 0.23582(19) 0.10402(10)
H12 H 0.7797 0.2271 0.1157
C21 C 0.7184(5) -0.02030(18) -0.04475(10)
H13 H 0.8151 -0.0587 -0.0577
C22 C 0.3713(4) 0.0444(2) -0.04605(10)
H14 H 0.2345 0.0500 -0.0590
C23 C 0.3006(6) 0.3070(2) 0.10704(13)
H15 H 0.2110 0.3468 0.1211
C24 C 0.5110(5) 0.2945(2) 0.12351(10)
H16 H 0.5611 0.3266 0.1480
C25 C 0.5127(5) -0.0101(2) -0.06405(11)
H17 H 0.4744 -0.0417 -0.0896
C26 C 0.2273(5) 0.2626(2) 0.07143(12)
H18 H 0.0877 0.2724 0.0608
C27 C 0.3722(4) 0.73806(16) 0.10451(9)
C28 C 0.5755(4) 0.69704(18) 0.09839(9)
N3 N 0.6363(3) 0.62753(14) 0.12187(8)
C29 C 0.2871(4) 0.62967(17) 0.15919(8)
C30 C 0.4944(4) 0.59402(17) 0.15143(9)
C31 C 0.2312(4) 0.70236(17) 0.13551(9)
H19 H 0.0971 0.7275 0.1405
C32 C 0.4195(5) 0.48389(18) 0.20597(10)
H20 H 0.4625 0.4357 0.2220
C33 C 0.5555(4) 0.52041(19) 0.17598(10)
H21 H 0.6918 0.4969 0.1713
C34 C 0.7202(4) 0.73186(18) 0.06592(10)
H22 H 0.8530 0.7055 0.0610
C35 C 0.3277(4) 0.81218(18) 0.07893(10)
H23 H 0.1962 0.8399 0.0830
C36 C 0.1491(4) 0.58897(19) 0.19093(10)
H24 H 0.0123 0.6113 0.1965
C37 C 0.4713(5) 0.84360(19) 0.04881(10)
H25 H 0.4390 0.8927 0.0325
C38 C 0.2135(5) 0.5182(2) 0.21316(10)
H26 H 0.1197 0.4919 0.2336
C39 C 0.6701(5) 0.8020(2) 0.04207(11)
H27 H 0.7680 0.8234 0.0208
C27 C 0.1278(4) 0.26194(16) 0.60451(9)
C28 C -0.0755(4) 0.30296(18) 0.59839(9)
N3 N -0.1363(3) 0.37247(14) 0.62187(8)
C29 C 0.2129(4) 0.37033(17) 0.65919(8)
C30 C 0.0056(4) 0.40598(17) 0.65143(9)
C31 C 0.2688(4) 0.29764(17) 0.63551(9)
H19 H 0.4029 0.2725 0.6405
C32 C 0.0805(5) 0.51611(18) 0.70597(10)
H20 H 0.0375 0.5643 0.7220
C33 C -0.0555(4) 0.47959(19) 0.67598(10)
H21 H -0.1918 0.5031 0.6713
C34 C -0.2202(4) 0.26814(18) 0.56592(10)
H22 H -0.3530 0.2945 0.5610
C35 C 0.1723(4) 0.18782(18) 0.57893(10)
H23 H 0.3038 0.1601 0.5830
C36 C 0.3509(4) 0.41103(19) 0.69093(10)
H24 H 0.4877 0.3887 0.6965
C37 C 0.0287(5) 0.15640(19) 0.54881(10)
H25 H 0.0610 0.1073 0.5325
C38 C 0.2865(5) 0.4818(2) 0.71316(10)
H26 H 0.3803 0.5081 0.7336
C39 C -0.1701(5) 0.1980(2) 0.54207(11)
H27 H -0.2680 0.1766 0.5208
C27 C 0.8722(4) 0.76194(16) 0.89549(9)
C28 C 1.0755(4) 0.80296(18) 0.90161(9)
N3 N 1.1363(3) 0.87247(14) 0.87813(8)
C29 C 0.7871(4) 0.87033(17) 0.84081(8)
C30 C 0.9944(4) 0.90598(17) 0.84857(9)
C31 C 0.7312(4) 0.79764(17) 0.86449(9)
H19 H 0.5971 0.7725 0.8595
C32 C 0.9195(5) 1.01611(18) 0.79403(10)
H20 H 0.9625 1.0643 0.7780
C33 C 1.0555(4) 0.97959(19) 0.82402(10)
H21 H 1.1918 1.0031 0.8287
C34 C 1.2202(4) 0.76814(18) 0.93408(10)
H22 H 1.3530 0.7945 0.9390
C35 C 0.8277(4) 0.68782(18) 0.92107(10)
H23 H 0.6962 0.6601 0.9170
C36 C 0.6491(4) 0.91103(19) 0.80907(10)
H24 H 0.5123 0.8887 0.8035
C37 C 0.9713(5) 0.65640(19) 0.95119(10)
H25 H 0.9390 0.6073 0.9675
C38 C 0.7135(5) 0.9818(2) 0.78684(10)
H26 H 0.6197 1.0081 0.7664
C39 C 1.1701(5) 0.6980(2) 0.95793(11)
H27 H 1.2680 0.6766 0.9792
C27 C 0.6278(4) 0.23806(16) 0.39549(9)
C28 C 0.4245(4) 0.19704(18) 0.40161(9)
N3 N 0.3637(3) 0.12753(14) 0.37813(8)
C29 C 0.7129(4) 0.12967(17) 0.34081(8)
C30 C 0.5056(4) 0.09402(17) 0.34857(9)
C31 C 0.7688(4) 0.20236(17) 0.36449(9)
H19 H 0.9029 0.2275 0.3595
C32 C 0.5805(5) -0.01611(18) 0.29403(10)
H20 H 0.5375 -0.0643 0.2780
C33 C 0.4445(4) 0.02041(19) 0.32402(10)
H21 H 0.3082 -0.0031 0.3287
C34 C 0.2798(4) 0.23186(18) 0.43408(10)
H22 H 0.1470 0.2055 0.4390
C35 C 0.6723(4) 0.31218(18) 0.42107(10)
H23 H 0.8038 0.3399 0.4170
C36 C 0.8509(4) 0.08897(19) 0.30907(10)
H24 H 0.9877 0.1113 0.3035
C37 C 0.5287(5) 0.34360(19) 0.45119(10)
H25 H 0.5610 0.3927 0.4675
C38 C 0.7865(5) 0.0182(2) 0.28684(10)
H26 H 0.8803 -0.0081 0.2664
C39 C 0.3299(5) 0.3020(2) 0.45793(11)
H27 H 0.2320 0.3234 0.4792

#END
