
#######################################################################
#
#                 Cambridge Crystallographic Data Centre
#                                CCDC 
#
#######################################################################
#
# If this CIF has been generated from an entry in the Cambridge 
# Structural Database, then it will include bibliographic, chemical, 
# crystal, experimental, refinement or atomic coordinate data resulting 
# from the CCDC's data processing and validation procedures.
#
#######################################################################

data_ACRDIN12
_symmetry_cell_setting           monoclinic
_symmetry_space_group_name_H-M   'P 21/n'
_symmetry_Int_Tables_number      14
_space_group_name_Hall           '-P 2yn'
loop_
_symmetry_equiv_pos_site_id
_symmetry_equiv_pos_as_xyz
1 x,y,z
2 1/2-x,1/2+y,1/2-z
3 -x,-y,-z
4 1/2+x,1/2-y,1/2+z
_cell_length_a                   11.28453(11)
_cell_length_b                   12.38182(12)
_cell_length_c                   6.67905(9)
_cell_angle_alpha                90
_cell_angle_beta                 92.0618(6)
_cell_angle_gamma                90
_cell_volume                     932.613
loop_
_atom_site_label
_atom_site_type_symbol
_atom_site_fract_x
_atom_site_fract_y
_atom_site_fract_z
_atom_site_U_iso_or_equiv
_atom_site_thermal_displace_type
N1 N 0.1540(5) 0.1053(19) 0.045(2) 0.0474 Uiso
C1 C 0.1213(11) 0.003(3) -0.252(4) 0.0474 Uiso
C2 C 0.1640(14) -0.048(2) -0.417(3) 0.0474 Uiso
C3 C 0.2853(15) -0.0476(11) -0.4573(15) 0.0474 Uiso
C4 C 0.3633(9) 0.0068(7) -0.3327(10) 0.0474 Uiso
C5 C 0.4001(2) 0.1154(2) -0.0256(3) 0.0474 Uiso
C6 C 0.4263(13) 0.2290(7) 0.2776(12) 0.0474 Uiso
C7 C 0.379(2) 0.2748(11) 0.4427(15) 0.0474 Uiso
C8 C 0.256(2) 0.266(2) 0.471(3) 0.0474 Uiso
C9 C 0.1830(18) 0.210(4) 0.341(6) 0.0474 Uiso
C10 C 0.1992(5) 0.0588(10) -0.1120(15) 0.0474 Uiso
C11 C 0.3234(4) 0.0603(4) -0.1568(6) 0.0474 Uiso
C12 C 0.3543(7) 0.1655(3) 0.1406(7) 0.0474 Uiso
C13 C 0.2282(7) 0.1578(9) 0.1666(17) 0.0474 Uiso
H1 H 0.0388(12) 0.002(4) -0.229(6) 0.0711 Uiso
H2 H 0.1103(18) -0.086(2) -0.504(4) 0.0711 Uiso
H3 H 0.313(2) -0.0838(17) -0.572(2) 0.0711 Uiso
H4 H 0.4453(10) 0.0071(13) -0.3603(18) 0.0711 Uiso
H5 H 0.4825(3) 0.1185(6) -0.0491(8) 0.0711 Uiso
H6 H 0.5086(12) 0.2370(14) 0.256(2) 0.0711 Uiso
H7 H 0.428(3) 0.315(2) 0.535(3) 0.0711 Uiso
H8 H 0.224(3) 0.299(3) 0.586(4) 0.0711 Uiso
H9 H 0.1006(19) 0.205(6) 0.364(7) 0.0711 Uiso
N1 N 0.3460(5) 0.6053(19) 0.455(2) 0.0474 Uiso
C1 C 0.3787(11) 0.503(3) 0.752(4) 0.0474 Uiso
C2 C 0.3360(14) 0.452(2) 0.917(3) 0.0474 Uiso
C3 C 0.2147(15) 0.4524(11) 0.9573(15) 0.0474 Uiso
C4 C 0.1367(9) 0.5068(7) 0.8327(10) 0.0474 Uiso
C5 C 0.0999(2) 0.6154(2) 0.5256(3) 0.0474 Uiso
C6 C 0.0737(13) 0.7290(7) 0.2224(12) 0.0474 Uiso
C7 C 0.121(2) 0.7748(11) 0.0573(15) 0.0474 Uiso
C8 C 0.244(2) 0.766(2) 0.029(3) 0.0474 Uiso
C9 C 0.3170(18) 0.710(4) 0.159(6) 0.0474 Uiso
C10 C 0.3008(5) 0.5588(10) 0.6120(15) 0.0474 Uiso
C11 C 0.1766(4) 0.5603(4) 0.6568(6) 0.0474 Uiso
C12 C 0.1457(7) 0.6655(3) 0.3594(7) 0.0474 Uiso
C13 C 0.2718(7) 0.6578(9) 0.3334(17) 0.0474 Uiso
H1 H 0.4612(12) 0.502(4) 0.729(6) 0.0711 Uiso
H2 H 0.3897(18) 0.414(2) 1.004(4) 0.0711 Uiso
H3 H 0.187(2) 0.4162(17) 1.072(2) 0.0711 Uiso
H4 H 0.0547(10) 0.5071(13) 0.8603(18) 0.0711 Uiso
H5 H 0.0175(3) 0.6185(6) 0.5491(8) 0.0711 Uiso
H6 H -0.0086(12) 0.7370(14) 0.244(2) 0.0711 Uiso
H7 H 0.072(3) 0.815(2) -0.035(3) 0.0711 Uiso
H8 H 0.276(3) 0.799(3) -0.086(4) 0.0711 Uiso
H9 H 0.3994(19) 0.705(6) 0.136(7) 0.0711 Uiso
N1 N 0.8460(5) 0.8947(19) 0.955(2) 0.0474 Uiso
C1 C 0.8787(11) 0.997(3) 1.252(4) 0.0474 Uiso
C2 C 0.8360(14) 1.048(2) 1.417(3) 0.0474 Uiso
C3 C 0.7147(15) 1.0476(11) 1.4573(15) 0.0474 Uiso
C4 C 0.6367(9) 0.9932(7) 1.3327(10) 0.0474 Uiso
C5 C 0.5999(2) 0.8846(2) 1.0256(3) 0.0474 Uiso
C6 C 0.5737(13) 0.7710(7) 0.7224(12) 0.0474 Uiso
C7 C 0.621(2) 0.7252(11) 0.5573(15) 0.0474 Uiso
C8 C 0.744(2) 0.734(2) 0.529(3) 0.0474 Uiso
C9 C 0.8170(18) 0.790(4) 0.659(6) 0.0474 Uiso
C10 C 0.8008(5) 0.9412(10) 1.1120(15) 0.0474 Uiso
C11 C 0.6766(4) 0.9397(4) 1.1568(6) 0.0474 Uiso
C12 C 0.6457(7) 0.8345(3) 0.8594(7) 0.0474 Uiso
C13 C 0.7718(7) 0.8422(9) 0.8334(17) 0.0474 Uiso
H1 H 0.9612(12) 0.998(4) 1.229(6) 0.0711 Uiso
H2 H 0.8897(18) 1.086(2) 1.504(4) 0.0711 Uiso
H3 H 0.687(2) 1.0838(17) 1.572(2) 0.0711 Uiso
H4 H 0.5547(10) 0.9929(13) 1.3603(18) 0.0711 Uiso
H5 H 0.5175(3) 0.8815(6) 1.0491(8) 0.0711 Uiso
H6 H 0.4914(12) 0.7630(14) 0.744(2) 0.0711 Uiso
H7 H 0.572(3) 0.685(2) 0.465(3) 0.0711 Uiso
H8 H 0.776(3) 0.701(3) 0.414(4) 0.0711 Uiso
H9 H 0.8994(19) 0.795(6) 0.636(7) 0.0711 Uiso
N1 N 0.6540(5) 0.3947(19) 0.545(2) 0.0474 Uiso
C1 C 0.6213(11) 0.497(3) 0.248(4) 0.0474 Uiso
C2 C 0.6640(14) 0.548(2) 0.083(3) 0.0474 Uiso
C3 C 0.7853(15) 0.5476(11) 0.0427(15) 0.0474 Uiso
C4 C 0.8633(9) 0.4932(7) 0.1673(10) 0.0474 Uiso
C5 C 0.9001(2) 0.3846(2) 0.4744(3) 0.0474 Uiso
C6 C 0.9263(13) 0.2710(7) 0.7776(12) 0.0474 Uiso
C7 C 0.879(2) 0.2252(11) 0.9427(15) 0.0474 Uiso
C8 C 0.756(2) 0.234(2) 0.971(3) 0.0474 Uiso
C9 C 0.6830(18) 0.290(4) 0.841(6) 0.0474 Uiso
C10 C 0.6992(5) 0.4412(10) 0.3880(15) 0.0474 Uiso
C11 C 0.8234(4) 0.4397(4) 0.3432(6) 0.0474 Uiso
C12 C 0.8543(7) 0.3345(3) 0.6406(7) 0.0474 Uiso
C13 C 0.7282(7) 0.3422(9) 0.6666(17) 0.0474 Uiso
H1 H 0.5388(12) 0.498(4) 0.271(6) 0.0711 Uiso
H2 H 0.6103(18) 0.586(2) -0.004(4) 0.0711 Uiso
H3 H 0.813(2) 0.5838(17) -0.072(2) 0.0711 Uiso
H4 H 0.9453(10) 0.4929(13) 0.1397(18) 0.0711 Uiso
H5 H 0.9825(3) 0.3815(6) 0.4509(8) 0.0711 Uiso
H6 H 1.0086(12) 0.2630(14) 0.756(2) 0.0711 Uiso
H7 H 0.928(3) 0.185(2) 1.035(3) 0.0711 Uiso
H8 H 0.724(3) 0.201(3) 1.086(4) 0.0711 Uiso
H9 H 0.6006(19) 0.295(6) 0.864(7) 0.0711 Uiso

#END
