
#######################################################################
#
#                 Cambridge Crystallographic Data Centre
#                                CCDC 
#
#######################################################################
#
# If this CIF has been generated from an entry in the Cambridge 
# Structural Database, then it will include bibliographic, chemical, 
# crystal, experimental, refinement or atomic coordinate data resulting 
# from the CCDC's data processing and validation procedures.
#
#######################################################################

data_ACRDIN11
_symmetry_cell_setting           monoclinic
_symmetry_space_group_name_H-M   'P 21/n'
_symmetry_Int_Tables_number      14
_space_group_name_Hall           '-P 2yn'
loop_
_symmetry_equiv_pos_site_id
_symmetry_equiv_pos_as_xyz
1 x,y,z
2 1/2-x,1/2+y,1/2-z
3 -x,-y,-z
4 1/2+x,1/2-y,1/2+z
_cell_length_a                   11.183(5)
_cell_length_b                   5.9341(12)
_cell_length_c                   13.590(4)
_cell_angle_alpha                90
_cell_angle_beta                 99.84(4)
_cell_angle_gamma                90
_cell_volume                     888.579
loop_
_atom_site_label
_atom_site_type_symbol
_atom_site_fract_x
_atom_site_fract_y
_atom_site_fract_z
N1 N 0.9293(11) 0.7248(13) 0.3926(6)
C1 C 0.8693(14) 0.6539(15) 0.4616(9)
C2 C 0.8596(14) 0.7912(16) 0.5442(8)
H1 H 0.8996 0.9330 0.5504
C3 C 0.7947(15) 0.7280(18) 0.6157(8)
H2 H 0.7909 0.8256 0.6705
C4 C 0.7323(13) 0.5167(16) 0.6096(8)
H3 H 0.6847 0.4738 0.6581
C5 C 0.7438(14) 0.3785(16) 0.5307(9)
H4 H 0.7052 0.2355 0.5272
C6 C 0.8070(14) 0.4340(15) 0.4577(7)
C7 C 0.8219(13) 0.2967(16) 0.3738(8)
H5 H 0.7877 0.1498 0.3693
C8 C 0.8803(13) 0.3631(15) 0.3027(8)
C9 C 0.8950(13) 0.2394(15) 0.2160(7)
H6 H 0.8626 0.0912 0.2086
C10 C 0.9513(14) 0.3186(16) 0.1446(10)
H7 H 0.9541 0.2292 0.0871
C11 C 1.0082(12) 0.5371(15) 0.1526(8)
H8 H 1.0508 0.5951 0.1033
C12 C 0.9951(12) 0.6598(15) 0.2410(8)
H9 H 1.0314 0.8049 0.2488
C13 C 0.9363(13) 0.5895(15) 0.3145(8)
N1 N 0.5707(11) 0.2248(13) 0.1074(6)
C1 C 0.6307(14) 0.1539(15) 0.0384(9)
C2 C 0.6404(14) 0.2912(16) -0.0442(8)
H1 H 0.6004 0.4330 -0.0504
C3 C 0.7053(15) 0.2280(18) -0.1157(8)
H2 H 0.7091 0.3256 -0.1705
C4 C 0.7677(13) 0.0167(16) -0.1096(8)
H3 H 0.8153 -0.0262 -0.1581
C5 C 0.7562(14) -0.1215(16) -0.0307(9)
H4 H 0.7948 -0.2645 -0.0272
C6 C 0.6930(14) -0.0660(15) 0.0423(7)
C7 C 0.6781(13) -0.2033(16) 0.1262(8)
H5 H 0.7123 -0.3502 0.1307
C8 C 0.6197(13) -0.1369(15) 0.1973(8)
C9 C 0.6050(13) -0.2606(15) 0.2840(7)
H6 H 0.6374 -0.4088 0.2914
C10 C 0.5487(14) -0.1814(16) 0.3554(10)
H7 H 0.5459 -0.2708 0.4129
C11 C 0.4918(12) 0.0371(15) 0.3474(8)
H8 H 0.4492 0.0951 0.3967
C12 C 0.5049(12) 0.1598(15) 0.2590(8)
H9 H 0.4686 0.3049 0.2512
C13 C 0.5637(13) 0.0895(15) 0.1855(8)
N1 N 0.0707(11) 0.2752(13) 0.6074(6)
C1 C 0.1307(14) 0.3461(15) 0.5384(9)
C2 C 0.1404(14) 0.2088(16) 0.4558(8)
H1 H 0.1004 0.0670 0.4496
C3 C 0.2053(15) 0.2720(18) 0.3843(8)
H2 H 0.2091 0.1744 0.3295
C4 C 0.2677(13) 0.4833(16) 0.3904(8)
H3 H 0.3153 0.5262 0.3419
C5 C 0.2562(14) 0.6215(16) 0.4693(9)
H4 H 0.2948 0.7645 0.4728
C6 C 0.1930(14) 0.5660(15) 0.5423(7)
C7 C 0.1781(13) 0.7033(16) 0.6262(8)
H5 H 0.2123 0.8502 0.6307
C8 C 0.1197(13) 0.6369(15) 0.6973(8)
C9 C 0.1050(13) 0.7606(15) 0.7840(7)
H6 H 0.1374 0.9088 0.7914
C10 C 0.0487(14) 0.6814(16) 0.8554(10)
H7 H 0.0459 0.7708 0.9129
C11 C -0.0082(12) 0.4629(15) 0.8474(8)
H8 H -0.0508 0.4049 0.8967
C12 C 0.0049(12) 0.3402(15) 0.7590(8)
H9 H -0.0314 0.1951 0.7512
C13 C 0.0637(13) 0.4105(15) 0.6855(8)
N1 N 0.4293(11) 0.7752(13) 0.8926(6)
C1 C 0.3693(14) 0.8461(15) 0.9616(9)
C2 C 0.3596(14) 0.7088(16) 1.0442(8)
H1 H 0.3996 0.5670 1.0504
C3 C 0.2947(15) 0.7720(18) 1.1157(8)
H2 H 0.2909 0.6744 1.1705
C4 C 0.2323(13) 0.9833(16) 1.1096(8)
H3 H 0.1847 1.0262 1.1581
C5 C 0.2438(14) 1.1215(16) 1.0307(9)
H4 H 0.2052 1.2645 1.0272
C6 C 0.3070(14) 1.0660(15) 0.9577(7)
C7 C 0.3219(13) 1.2033(16) 0.8738(8)
H5 H 0.2877 1.3502 0.8693
C8 C 0.3803(13) 1.1369(15) 0.8027(8)
C9 C 0.3950(13) 1.2606(15) 0.7160(7)
H6 H 0.3626 1.4088 0.7086
C10 C 0.4513(14) 1.1814(16) 0.6446(10)
H7 H 0.4541 1.2708 0.5871
C11 C 0.5082(12) 0.9629(15) 0.6526(8)
H8 H 0.5508 0.9049 0.6033
C12 C 0.4951(12) 0.8402(15) 0.7410(8)
H9 H 0.5314 0.6951 0.7488
C13 C 0.4363(13) 0.9105(15) 0.8145(8)

#END
