
#######################################################################
#
#                 Cambridge Crystallographic Data Centre
#                                CCDC 
#
#######################################################################
#
# If this CIF has been generated from an entry in the Cambridge 
# Structural Database, then it will include bibliographic, chemical, 
# crystal, experimental, refinement or atomic coordinate data resulting 
# from the CCDC's data processing and validation procedures.
#
#######################################################################

data_ACRDIN07
_symmetry_cell_setting           monoclinic
_symmetry_space_group_name_H-M   'P 21/c'
_symmetry_Int_Tables_number      14
_space_group_name_Hall           '-P 2ybc'
loop_
_symmetry_equiv_pos_site_id
_symmetry_equiv_pos_as_xyz
1 x,y,z
2 -x,1/2+y,1/2-z
3 -x,-y,-z
4 x,1/2-y,1/2+z
_cell_length_a                   6.0693(2)
_cell_length_b                   18.8181(7)
_cell_length_c                   16.2830(5)
_cell_angle_alpha                90
_cell_angle_beta                 95.155(3)
_cell_angle_gamma                90
_cell_volume                     1852.2
loop_
_atom_site_label
_atom_site_type_symbol
_atom_site_fract_x
_atom_site_fract_y
_atom_site_fract_z
N1 N 0.24410(17) 0.42335(7) 0.96126(7)
C1 C -0.0736(2) 0.47045(8) 0.87617(8)
C2 C -0.0982(2) 0.35571(8) 0.93973(8)
C3 C 0.1485(2) 0.47500(8) 0.91352(8)
C4 C -0.1931(2) 0.40982(9) 0.89117(8)
H1 H -0.3385 0.4055 0.8684
C5 C 0.1242(2) 0.36513(8) 0.97433(8)
C6 C 0.2731(3) 0.53714(8) 0.90028(9)
H2 H 0.4168 0.5413 0.9250
C7 C 0.2220(3) 0.31055(9) 1.02570(9)
H3 H 0.3670 0.3157 1.0487
C8 C -0.1576(3) 0.52780(9) 0.82617(9)
H4 H -0.3015 0.5256 0.8013
C9 C -0.2104(3) 0.29209(10) 0.95779(10)
H5 H -0.3548 0.2850 0.9351
C10 C -0.0320(3) 0.58554(10) 0.81405(10)
H6 H -0.0891 0.6223 0.7804
C11 C 0.1853(3) 0.59016(9) 0.85228(10)
H7 H 0.2695 0.6305 0.8442
C12 C 0.1079(3) 0.25134(9) 1.04170(10)
H8 H 0.1748 0.2165 1.0759
C13 C -0.1113(3) 0.24177(10) 1.00726(11)
H9 H -0.1880 0.2007 1.0186
N1 N 0.75590(17) 0.92335(7) 0.53874(7)
C1 C 1.0736(2) 0.97045(8) 0.62383(8)
C2 C 1.0982(2) 0.85571(8) 0.56027(8)
C3 C 0.8515(2) 0.97500(8) 0.58648(8)
C4 C 1.1931(2) 0.90982(9) 0.60883(8)
H1 H 1.3385 0.9055 0.6316
C5 C 0.8758(2) 0.86513(8) 0.52567(8)
C6 C 0.7269(3) 1.03714(8) 0.59972(9)
H2 H 0.5832 1.0413 0.5750
C7 C 0.7780(3) 0.81055(9) 0.47430(9)
H3 H 0.6330 0.8157 0.4513
C8 C 1.1576(3) 1.02780(9) 0.67383(9)
H4 H 1.3015 1.0256 0.6987
C9 C 1.2104(3) 0.79209(10) 0.54221(10)
H5 H 1.3548 0.7850 0.5649
C10 C 1.0320(3) 1.08554(10) 0.68595(10)
H6 H 1.0891 1.1223 0.7196
C11 C 0.8147(3) 1.09016(9) 0.64772(10)
H7 H 0.7305 1.1305 0.6558
C12 C 0.8921(3) 0.75134(9) 0.45830(10)
H8 H 0.8252 0.7165 0.4241
C13 C 1.1113(3) 0.74177(10) 0.49274(11)
H9 H 1.1880 0.7007 0.4814
N1 N 0.75590(17) 0.57665(7) 0.03874(7)
C1 C 1.0736(2) 0.52955(8) 0.12383(8)
C2 C 1.0982(2) 0.64429(8) 0.06027(8)
C3 C 0.8515(2) 0.52500(8) 0.08648(8)
C4 C 1.1931(2) 0.59018(9) 0.10883(8)
H1 H 1.3385 0.5945 0.1316
C5 C 0.8758(2) 0.63487(8) 0.02567(8)
C6 C 0.7269(3) 0.46286(8) 0.09972(9)
H2 H 0.5832 0.4587 0.0750
C7 C 0.7780(3) 0.68945(9) -0.02570(9)
H3 H 0.6330 0.6843 -0.0487
C8 C 1.1576(3) 0.47220(9) 0.17383(9)
H4 H 1.3015 0.4744 0.1987
C9 C 1.2104(3) 0.70791(10) 0.04221(10)
H5 H 1.3548 0.7150 0.0649
C10 C 1.0320(3) 0.41446(10) 0.18595(10)
H6 H 1.0891 0.3777 0.2196
C11 C 0.8147(3) 0.40984(9) 0.14772(10)
H7 H 0.7305 0.3695 0.1558
C12 C 0.8921(3) 0.74866(9) -0.04170(10)
H8 H 0.8252 0.7835 -0.0759
C13 C 1.1113(3) 0.75823(10) -0.00726(11)
H9 H 1.1880 0.7993 -0.0186
N1 N 0.24410(17) 0.07665(7) 0.46126(7)
C1 C -0.0736(2) 0.02955(8) 0.37617(8)
C2 C -0.0982(2) 0.14429(8) 0.43973(8)
C3 C 0.1485(2) 0.02500(8) 0.41352(8)
C4 C -0.1931(2) 0.09018(9) 0.39117(8)
H1 H -0.3385 0.0945 0.3684
C5 C 0.1242(2) 0.13487(8) 0.47433(8)
C6 C 0.2731(3) -0.03714(8) 0.40028(9)
H2 H 0.4168 -0.0413 0.4250
C7 C 0.2220(3) 0.18945(9) 0.52570(9)
H3 H 0.3670 0.1843 0.5487
C8 C -0.1576(3) -0.02780(9) 0.32617(9)
H4 H -0.3015 -0.0256 0.3013
C9 C -0.2104(3) 0.20791(10) 0.45779(10)
H5 H -0.3548 0.2150 0.4351
C10 C -0.0320(3) -0.08554(10) 0.31405(10)
H6 H -0.0891 -0.1223 0.2804
C11 C 0.1853(3) -0.09016(9) 0.35228(10)
H7 H 0.2695 -0.1305 0.3442
C12 C 0.1079(3) 0.24866(9) 0.54170(10)
H8 H 0.1748 0.2835 0.5759
C13 C -0.1113(3) 0.25823(10) 0.50726(11)
H9 H -0.1880 0.2993 0.5186
N2 N 0.69944(19) 0.10378(7) 0.14105(7)
C14 C 0.6422(2) 0.03636(8) 0.12313(8)
C15 C 0.5629(2) 0.14231(8) 0.18451(8)
C16 C 0.3615(2) 0.11485(8) 0.21096(8)
C17 C 0.3070(2) 0.04513(9) 0.19094(9)
H10 H 0.1767 0.0257 0.2070
C18 C 0.4453(2) 0.00412(8) 0.14716(9)
C19 C 0.6220(3) 0.21341(9) 0.20567(10)
H11 H 0.7518 0.2325 0.1887
C20 C 0.7860(3) -0.00491(9) 0.07849(10)
H12 H 0.9139 0.0156 0.0617
C21 C 0.2305(3) 0.15967(10) 0.25716(10)
H13 H 0.0985 0.1425 0.2743
C22 C 0.7405(3) -0.07362(10) 0.06001(11)
H14 H 0.8377 -0.1000 0.0312
C23 C 0.4036(3) -0.06814(9) 0.12601(11)
H15 H 0.2760 -0.0900 0.1413
C24 C 0.2940(3) 0.22665(10) 0.27662(10)
H16 H 0.2070 0.2550 0.3075
C25 C 0.5466(3) -0.10564(9) 0.08410(11)
H17 H 0.5168 -0.1530 0.0710
C26 C 0.4920(3) 0.25370(9) 0.25024(10)
H18 H 0.5340 0.3001 0.2637
N2 N 0.30056(19) 0.60378(7) 0.35895(7)
C14 C 0.3578(2) 0.53636(8) 0.37687(8)
C15 C 0.4371(2) 0.64231(8) 0.31549(8)
C16 C 0.6385(2) 0.61485(8) 0.28904(8)
C17 C 0.6930(2) 0.54513(9) 0.30906(9)
H10 H 0.8233 0.5257 0.2930
C18 C 0.5547(2) 0.50412(8) 0.35284(9)
C19 C 0.3780(3) 0.71341(9) 0.29433(10)
H11 H 0.2482 0.7325 0.3113
C20 C 0.2140(3) 0.49509(9) 0.42151(10)
H12 H 0.0861 0.5156 0.4383
C21 C 0.7695(3) 0.65967(10) 0.24284(10)
H13 H 0.9015 0.6425 0.2257
C22 C 0.2595(3) 0.42638(10) 0.43999(11)
H14 H 0.1623 0.4000 0.4688
C23 C 0.5964(3) 0.43186(9) 0.37399(11)
H15 H 0.7240 0.4100 0.3587
C24 C 0.7060(3) 0.72665(10) 0.22338(10)
H16 H 0.7930 0.7550 0.1925
C25 C 0.4534(3) 0.39436(9) 0.41590(11)
H17 H 0.4832 0.3470 0.4290
C26 C 0.5080(3) 0.75370(9) 0.24976(10)
H18 H 0.4660 0.8001 0.2363
N2 N 0.30056(19) 0.89622(7) 0.85895(7)
C14 C 0.3578(2) 0.96364(8) 0.87687(8)
C15 C 0.4371(2) 0.85769(8) 0.81549(8)
C16 C 0.6385(2) 0.88515(8) 0.78904(8)
C17 C 0.6930(2) 0.95487(9) 0.80906(9)
H10 H 0.8233 0.9743 0.7930
C18 C 0.5547(2) 0.99588(8) 0.85284(9)
C19 C 0.3780(3) 0.78659(9) 0.79433(10)
H11 H 0.2482 0.7675 0.8113
C20 C 0.2140(3) 1.00491(9) 0.92151(10)
H12 H 0.0861 0.9844 0.9383
C21 C 0.7695(3) 0.84033(10) 0.74284(10)
H13 H 0.9015 0.8575 0.7257
C22 C 0.2595(3) 1.07362(10) 0.93999(11)
H14 H 0.1623 1.1000 0.9688
C23 C 0.5964(3) 1.06814(9) 0.87399(11)
H15 H 0.7240 1.0900 0.8587
C24 C 0.7060(3) 0.77335(10) 0.72338(10)
H16 H 0.7930 0.7450 0.6925
C25 C 0.4534(3) 1.10564(9) 0.91590(11)
H17 H 0.4832 1.1530 0.9290
C26 C 0.5080(3) 0.74630(9) 0.74976(10)
H18 H 0.4660 0.6999 0.7363
N2 N 0.69944(19) 0.39622(7) 0.64105(7)
C14 C 0.6422(2) 0.46364(8) 0.62313(8)
C15 C 0.5629(2) 0.35769(8) 0.68451(8)
C16 C 0.3615(2) 0.38515(8) 0.71096(8)
C17 C 0.3070(2) 0.45487(9) 0.69094(9)
H10 H 0.1767 0.4743 0.7070
C18 C 0.4453(2) 0.49588(8) 0.64716(9)
C19 C 0.6220(3) 0.28659(9) 0.70567(10)
H11 H 0.7518 0.2675 0.6887
C20 C 0.7860(3) 0.50491(9) 0.57849(10)
H12 H 0.9139 0.4844 0.5617
C21 C 0.2305(3) 0.34033(10) 0.75716(10)
H13 H 0.0985 0.3575 0.7743
C22 C 0.7405(3) 0.57362(10) 0.56001(11)
H14 H 0.8377 0.6000 0.5312
C23 C 0.4036(3) 0.56814(9) 0.62601(11)
H15 H 0.2760 0.5900 0.6413
C24 C 0.2940(3) 0.27335(10) 0.77662(10)
H16 H 0.2070 0.2450 0.8075
C25 C 0.5466(3) 0.60564(9) 0.58410(11)
H17 H 0.5168 0.6530 0.5710
C26 C 0.4920(3) 0.24630(9) 0.75024(10)
H18 H 0.5340 0.1999 0.7637

#END
