
#######################################################################
#
#                 Cambridge Crystallographic Data Centre
#                                CCDC 
#
#######################################################################
#
# If this CIF has been generated from an entry in the Cambridge 
# Structural Database, then it will include bibliographic, chemical, 
# crystal, experimental, refinement or atomic coordinate data resulting 
# from the CCDC's data processing and validation procedures.
#
#######################################################################

data_ACRDIN13
_symmetry_cell_setting           monoclinic
_symmetry_space_group_name_H-M   'P 21/c'
_symmetry_Int_Tables_number      14
_space_group_name_Hall           '-P 2ybc'
loop_
_symmetry_equiv_pos_site_id
_symmetry_equiv_pos_as_xyz
1 x,y,z
2 -x,1/2+y,1/2-z
3 -x,-y,-z
4 x,1/2-y,1/2+z
_cell_length_a                   6.0702(9)
_cell_length_b                   18.847(3)
_cell_length_c                   16.304(3)
_cell_angle_alpha                90
_cell_angle_beta                 95.207(6)
_cell_angle_gamma                90
_cell_volume                     1857.56
loop_
_atom_site_label
_atom_site_type_symbol
_atom_site_fract_x
_atom_site_fract_y
_atom_site_fract_z
N1 N 0.2559(3) 0.42342(11) 0.53869(12)
C1 C 0.3506(4) 0.47534(13) 0.58622(14)
C2 C 0.3756(4) 0.36488(13) 0.52529(14)
C3 C 0.5993(4) 0.35569(14) 0.56014(14)
C4 C 0.5739(4) 0.47051(13) 0.62389(13)
C5 C 0.6937(4) 0.40980(14) 0.60891(14)
H1 H 0.842088 0.405347 0.632397
C6 C 0.2259(5) 0.53716(14) 0.59993(16)
H2 H 0.078798 0.541296 0.575052
C7 C 0.2789(5) 0.31056(15) 0.47416(16)
H3 H 0.131138 0.315973 0.450383
C8 C 0.6585(5) 0.52742(16) 0.67388(16)
H4 H 0.805477 0.525037 0.699274
C9 C 0.7112(5) 0.29212(17) 0.54229(18)
H5 H 0.858702 0.284998 0.565648
C10 C 0.5331(6) 0.58525(17) 0.68607(18)
H6 H 0.592047 0.622721 0.720326
C11 C 0.3140(6) 0.59014(16) 0.64793(18)
H7 H 0.228298 0.631255 0.656294
C12 C 0.3925(6) 0.25093(16) 0.45831(18)
H8 H 0.323615 0.215202 0.423761
C13 C 0.6131(6) 0.24154(18) 0.4929(2)
H9 H 0.691946 0.199703 0.481409
N1 N 0.7441(3) 0.92342(11) 0.96131(12)
C1 C 0.6494(4) 0.97534(13) 0.91378(14)
C2 C 0.6244(4) 0.86488(13) 0.97471(14)
C3 C 0.4007(4) 0.85569(14) 0.93986(14)
C4 C 0.4261(4) 0.97051(13) 0.87611(13)
C5 C 0.3063(4) 0.90980(14) 0.89109(14)
H1 H 0.157912 0.905347 0.867603
C6 C 0.7741(5) 1.03716(14) 0.90007(16)
H2 H 0.921202 1.041296 0.924948
C7 C 0.7211(5) 0.81056(15) 1.02584(16)
H3 H 0.868862 0.815973 1.049617
C8 C 0.3415(5) 1.02742(16) 0.82612(16)
H4 H 0.194523 1.025037 0.800726
C9 C 0.2888(5) 0.79212(17) 0.95771(18)
H5 H 0.141298 0.784998 0.934352
C10 C 0.4669(6) 1.08525(17) 0.81393(18)
H6 H 0.407953 1.122721 0.779674
C11 C 0.6860(6) 1.09014(16) 0.85207(18)
H7 H 0.771702 1.131255 0.843706
C12 C 0.6075(6) 0.75093(16) 1.04169(18)
H8 H 0.676385 0.715202 1.076239
C13 C 0.3869(6) 0.74154(18) 1.0071(2)
H9 H 0.308054 0.699703 1.018591
N1 N 0.7441(3) 0.57658(11) 0.46131(12)
C1 C 0.6494(4) 0.52466(13) 0.41378(14)
C2 C 0.6244(4) 0.63512(13) 0.47471(14)
C3 C 0.4007(4) 0.64431(14) 0.43986(14)
C4 C 0.4261(4) 0.52949(13) 0.37611(13)
C5 C 0.3063(4) 0.59020(14) 0.39109(14)
H1 H 0.157912 0.594653 0.367603
C6 C 0.7741(5) 0.46284(14) 0.40007(16)
H2 H 0.921202 0.458704 0.424948
C7 C 0.7211(5) 0.68944(15) 0.52584(16)
H3 H 0.868862 0.684027 0.549617
C8 C 0.3415(5) 0.47258(16) 0.32612(16)
H4 H 0.194523 0.474963 0.300726
C9 C 0.2888(5) 0.70788(17) 0.45771(18)
H5 H 0.141298 0.715002 0.434352
C10 C 0.4669(6) 0.41475(17) 0.31393(18)
H6 H 0.407953 0.377279 0.279674
C11 C 0.6860(6) 0.40986(16) 0.35207(18)
H7 H 0.771702 0.368745 0.343706
C12 C 0.6075(6) 0.74907(16) 0.54169(18)
H8 H 0.676385 0.784798 0.576239
C13 C 0.3869(6) 0.75846(18) 0.5071(2)
H9 H 0.308054 0.800297 0.518591
N1 N 0.2559(3) 0.07658(11) 0.03869(12)
C1 C 0.3506(4) 0.02466(13) 0.08622(14)
C2 C 0.3756(4) 0.13512(13) 0.02529(14)
C3 C 0.5993(4) 0.14431(14) 0.06014(14)
C4 C 0.5739(4) 0.02949(13) 0.12389(13)
C5 C 0.6937(4) 0.09020(14) 0.10891(14)
H1 H 0.842088 0.094653 0.132397
C6 C 0.2259(5) -0.03716(14) 0.09993(16)
H2 H 0.078798 -0.041296 0.075052
C7 C 0.2789(5) 0.18944(15) -0.02584(16)
H3 H 0.131138 0.184027 -0.049617
C8 C 0.6585(5) -0.02742(16) 0.17388(16)
H4 H 0.805477 -0.025037 0.199274
C9 C 0.7112(5) 0.20788(17) 0.04229(18)
H5 H 0.858702 0.215002 0.065648
C10 C 0.5331(6) -0.08525(17) 0.18607(18)
H6 H 0.592047 -0.122721 0.220326
C11 C 0.3140(6) -0.09014(16) 0.14793(18)
H7 H 0.228298 -0.131255 0.156294
C12 C 0.3925(6) 0.24907(16) -0.04169(18)
H8 H 0.323615 0.284798 -0.076239
C13 C 0.6131(6) 0.25846(18) -0.0071(2)
H9 H 0.691946 0.300297 -0.018591
N2 N -0.1992(3) 0.39614(11) 0.85889(13)
C14 C -0.0641(4) 0.35733(13) 0.81540(14)
C15 C 0.1387(4) 0.38531(14) 0.78882(14)
C16 C -0.1430(4) 0.46378(13) 0.87703(14)
C17 C 0.0550(4) 0.49608(14) 0.85274(15)
C18 C 0.1927(4) 0.45481(14) 0.80866(16)
H10 H 0.325469 0.474592 0.791975
C19 C -0.1225(5) 0.28631(15) 0.79456(17)
H11 H -0.254382 0.266750 0.812320
C20 C -0.2862(5) 0.50519(15) 0.92142(17)
H12 H -0.417094 0.484270 0.938301
C21 C 0.2695(5) 0.34059(17) 0.74285(17)
H13 H 0.404329 0.358224 0.725486
C22 C 0.0974(5) 0.56817(16) 0.87369(19)
H14 H 0.227872 0.590246 0.857989
C23 C 0.0068(6) 0.24601(17) 0.74973(19)
H15 H -0.036553 0.198767 0.735811
C24 C 0.2069(5) 0.27351(18) 0.72316(19)
H16 H 0.296181 0.244722 0.691657
C25 C -0.2411(6) 0.57378(16) 0.94036(19)
H17 H -0.339967 0.600528 0.970105
C26 C -0.0452(6) 0.60599(17) 0.9157(2)
H18 H -0.014391 0.654302 0.928866
N2 N 1.1992(3) 0.89614(11) 0.64111(13)
C14 C 1.0641(4) 0.85733(13) 0.68460(14)
C15 C 0.8613(4) 0.88531(14) 0.71118(14)
C16 C 1.1430(4) 0.96378(13) 0.62297(14)
C17 C 0.9450(4) 0.99608(14) 0.64726(15)
C18 C 0.8073(4) 0.95481(14) 0.69134(16)
H10 H 0.674531 0.974592 0.708025
C19 C 1.1225(5) 0.78631(15) 0.70544(17)
H11 H 1.254382 0.766750 0.687680
C20 C 1.2862(5) 1.00519(15) 0.57858(17)
H12 H 1.417094 0.984270 0.561699
C21 C 0.7305(5) 0.84059(17) 0.75715(17)
H13 H 0.595671 0.858224 0.774514
C22 C 0.9026(5) 1.06817(16) 0.62631(19)
H14 H 0.772128 1.090246 0.642011
C23 C 0.9932(6) 0.74601(17) 0.75027(19)
H15 H 1.036553 0.698767 0.764189
C24 C 0.7931(5) 0.77351(18) 0.77684(19)
H16 H 0.703819 0.744722 0.808343
C25 C 1.2411(6) 1.07378(16) 0.55964(19)
H17 H 1.339967 1.100528 0.529895
C26 C 1.0452(6) 1.10599(17) 0.5843(2)
H18 H 1.014391 1.154302 0.571134
N2 N 1.1992(3) 0.60386(11) 0.14111(13)
C14 C 1.0641(4) 0.64267(13) 0.18460(14)
C15 C 0.8613(4) 0.61469(14) 0.21118(14)
C16 C 1.1430(4) 0.53622(13) 0.12297(14)
C17 C 0.9450(4) 0.50392(14) 0.14726(15)
C18 C 0.8073(4) 0.54519(14) 0.19134(16)
H10 H 0.674531 0.525408 0.208025
C19 C 1.1225(5) 0.71369(15) 0.20544(17)
H11 H 1.254382 0.733250 0.187680
C20 C 1.2862(5) 0.49481(15) 0.07858(17)
H12 H 1.417094 0.515730 0.061699
C21 C 0.7305(5) 0.65941(17) 0.25715(17)
H13 H 0.595671 0.641776 0.274514
C22 C 0.9026(5) 0.43183(16) 0.12631(19)
H14 H 0.772128 0.409754 0.142011
C23 C 0.9932(6) 0.75399(17) 0.25027(19)
H15 H 1.036553 0.801233 0.264189
C24 C 0.7931(5) 0.72649(18) 0.27684(19)
H16 H 0.703819 0.755278 0.308343
C25 C 1.2411(6) 0.42622(16) 0.05964(19)
H17 H 1.339967 0.399472 0.029895
C26 C 1.0452(6) 0.39401(17) 0.0843(2)
H18 H 1.014391 0.345698 0.071134
N2 N -0.1992(3) 0.10386(11) 0.35889(13)
C14 C -0.0641(4) 0.14267(13) 0.31540(14)
C15 C 0.1387(4) 0.11469(14) 0.28882(14)
C16 C -0.1430(4) 0.03622(13) 0.37703(14)
C17 C 0.0550(4) 0.00392(14) 0.35274(15)
C18 C 0.1927(4) 0.04519(14) 0.30866(16)
H10 H 0.325469 0.025408 0.291975
C19 C -0.1225(5) 0.21369(15) 0.29456(17)
H11 H -0.254382 0.233250 0.312320
C20 C -0.2862(5) -0.00519(15) 0.42142(17)
H12 H -0.417094 0.015730 0.438301
C21 C 0.2695(5) 0.15941(17) 0.24285(17)
H13 H 0.404329 0.141776 0.225486
C22 C 0.0974(5) -0.06817(16) 0.37369(19)
H14 H 0.227872 -0.090246 0.357989
C23 C 0.0068(6) 0.25399(17) 0.24973(19)
H15 H -0.036553 0.301233 0.235811
C24 C 0.2069(5) 0.22649(18) 0.22316(19)
H16 H 0.296181 0.255278 0.191657
C25 C -0.2411(6) -0.07378(16) 0.44036(19)
H17 H -0.339967 -0.100528 0.470105
C26 C -0.0452(6) -0.10599(17) 0.4157(2)
H18 H -0.014391 -0.154302 0.428866

#END
