
#######################################################################
#
#                 Cambridge Crystallographic Data Centre
#                                CCDC 
#
#######################################################################
#
# If this CIF has been generated from an entry in the Cambridge 
# Structural Database, then it will include bibliographic, chemical, 
# crystal, experimental, refinement or atomic coordinate data resulting 
# from the CCDC's data processing and validation procedures.
#
#######################################################################

data_ACRDIN10
_symmetry_cell_setting           monoclinic
_symmetry_space_group_name_H-M   'P 21/c'
_symmetry_Int_Tables_number      14
_space_group_name_Hall           '-P 2ybc'
loop_
_symmetry_equiv_pos_site_id
_symmetry_equiv_pos_as_xyz
1 x,y,z
2 -x,1/2+y,1/2-z
3 -x,-y,-z
4 x,1/2-y,1/2+z
_cell_length_a                   6.028(7)
_cell_length_b                   18.76(2)
_cell_length_c                   16.171(19)
_cell_angle_alpha                90
_cell_angle_beta                 95.180(13)
_cell_angle_gamma                90
_cell_volume                     1821.23
loop_
_atom_site_label
_atom_site_type_symbol
_atom_site_fract_x
_atom_site_fract_y
_atom_site_fract_z
N1 N 0.2462(4) 0.57573(13) 0.46142(17)
C1 C -0.0769(5) 0.52860(16) 0.3756(2)
C2 C -0.1003(5) 0.64377(17) 0.4401(2)
C3 C 0.1475(5) 0.52397(16) 0.4131(2)
C4 C 0.1243(5) 0.63450(16) 0.4745(2)
C5 C 0.2738(7) 0.46189(19) 0.3997(2)
C6 C 0.2243(6) 0.68904(18) 0.5265(2)
C7 C -0.1620(7) 0.47072(19) 0.3251(2)
C8 C -0.1971(6) 0.58955(19) 0.3909(2)
C9 C -0.2137(7) 0.7079(2) 0.4585(2)
C10 C 0.1844(7) 0.4085(2) 0.3508(2)
C11 C -0.0348(7) 0.4131(2) 0.3126(2)
C12 C 0.1086(7) 0.74868(19) 0.5429(3)
C13 C -0.1128(7) 0.7584(2) 0.5083(2)
D1 D -0.354(5) 0.5951(15) 0.370(2)
D2 D 0.272(6) 0.3653(18) 0.339(2)
D3 D -0.323(5) 0.4763(15) 0.302(2)
D4 D 0.423(6) 0.4588(16) 0.422(2)
D5 D 0.379(6) 0.6796(16) 0.553(2)
D6 D -0.365(6) 0.7121(16) 0.433(2)
D7 D 0.183(6) 0.7851(18) 0.580(2)
D8 D -0.097(6) 0.3740(17) 0.277(2)
D9 D -0.194(6) 0.8063(18) 0.522(2)
N1 N 0.7538(4) 0.07573(13) 0.03858(17)
C1 C 1.0769(5) 0.02860(16) 0.1244(2)
C2 C 1.1003(5) 0.14377(17) 0.0599(2)
C3 C 0.8525(5) 0.02397(16) 0.0869(2)
C4 C 0.8757(5) 0.13450(16) 0.0255(2)
C5 C 0.7262(7) -0.03811(19) 0.1003(2)
C6 C 0.7757(6) 0.18904(18) -0.0265(2)
C7 C 1.1620(7) -0.02928(19) 0.1749(2)
C8 C 1.1971(6) 0.08955(19) 0.1091(2)
C9 C 1.2137(7) 0.2079(2) 0.0415(2)
C10 C 0.8156(7) -0.0915(2) 0.1492(2)
C11 C 1.0348(7) -0.0869(2) 0.1874(2)
C12 C 0.8914(7) 0.24868(19) -0.0429(3)
C13 C 1.1128(7) 0.2584(2) -0.0083(2)
D1 D 1.354(5) 0.0951(15) 0.130(2)
D2 D 0.728(6) -0.1347(18) 0.161(2)
D3 D 1.323(5) -0.0237(15) 0.198(2)
D4 D 0.577(6) -0.0412(16) 0.078(2)
D5 D 0.621(6) 0.1796(16) -0.053(2)
D6 D 1.365(6) 0.2121(16) 0.067(2)
D7 D 0.817(6) 0.2851(18) -0.080(2)
D8 D 1.097(6) -0.1260(17) 0.223(2)
D9 D 1.194(6) 0.3063(18) -0.022(2)
N1 N 0.7538(4) 0.42427(13) 0.53858(17)
C1 C 1.0769(5) 0.47140(16) 0.6244(2)
C2 C 1.1003(5) 0.35623(17) 0.5599(2)
C3 C 0.8525(5) 0.47603(16) 0.5869(2)
C4 C 0.8757(5) 0.36550(16) 0.5255(2)
C5 C 0.7262(7) 0.53811(19) 0.6003(2)
C6 C 0.7757(6) 0.31096(18) 0.4735(2)
C7 C 1.1620(7) 0.52928(19) 0.6749(2)
C8 C 1.1971(6) 0.41045(19) 0.6091(2)
C9 C 1.2137(7) 0.2921(2) 0.5415(2)
C10 C 0.8156(7) 0.5915(2) 0.6492(2)
C11 C 1.0348(7) 0.5869(2) 0.6874(2)
C12 C 0.8914(7) 0.25132(19) 0.4571(3)
C13 C 1.1128(7) 0.2416(2) 0.4917(2)
D1 D 1.354(5) 0.4049(15) 0.630(2)
D2 D 0.728(6) 0.6347(18) 0.661(2)
D3 D 1.323(5) 0.5237(15) 0.698(2)
D4 D 0.577(6) 0.5412(16) 0.578(2)
D5 D 0.621(6) 0.3204(16) 0.447(2)
D6 D 1.365(6) 0.2879(16) 0.567(2)
D7 D 0.817(6) 0.2149(18) 0.420(2)
D8 D 1.097(6) 0.6260(17) 0.723(2)
D9 D 1.194(6) 0.1937(18) 0.478(2)
N1 N 0.2462(4) 0.92427(13) 0.96142(17)
C1 C -0.0769(5) 0.97140(16) 0.8756(2)
C2 C -0.1003(5) 0.85623(17) 0.9401(2)
C3 C 0.1475(5) 0.97603(16) 0.9131(2)
C4 C 0.1243(5) 0.86550(16) 0.9745(2)
C5 C 0.2738(7) 1.03811(19) 0.8997(2)
C6 C 0.2243(6) 0.81096(18) 1.0265(2)
C7 C -0.1620(7) 1.02928(19) 0.8251(2)
C8 C -0.1971(6) 0.91045(19) 0.8909(2)
C9 C -0.2137(7) 0.7921(2) 0.9585(2)
C10 C 0.1844(7) 1.0915(2) 0.8508(2)
C11 C -0.0348(7) 1.0869(2) 0.8126(2)
C12 C 0.1086(7) 0.75132(19) 1.0429(3)
C13 C -0.1128(7) 0.7416(2) 1.0083(2)
D1 D -0.354(5) 0.9049(15) 0.870(2)
D2 D 0.272(6) 1.1347(18) 0.839(2)
D3 D -0.323(5) 1.0237(15) 0.802(2)
D4 D 0.423(6) 1.0412(16) 0.922(2)
D5 D 0.379(6) 0.8204(16) 1.053(2)
D6 D -0.365(6) 0.7879(16) 0.933(2)
D7 D 0.183(6) 0.7149(18) 1.080(2)
D8 D -0.097(6) 1.1260(17) 0.777(2)
D9 D -0.194(6) 0.6937(18) 1.022(2)
N2 N 0.2991(4) 0.10342(14) 0.35882(17)
C14 C 0.3583(5) 0.03539(16) 0.3776(2)
C15 C 0.4383(5) 0.14178(16) 0.3157(2)
C16 C 0.6405(5) 0.11421(17) 0.2892(2)
C17 C 0.5562(5) 0.00274(16) 0.3533(2)
C18 C 0.6961(6) 0.04387(18) 0.3095(2)
C19 C 0.3777(6) 0.21324(18) 0.2938(2)
C20 C 0.2121(6) -0.00592(19) 0.4222(2)
C21 C 0.4532(7) -0.1074(2) 0.4167(3)
C22 C 0.7734(6) 0.1587(2) 0.2423(2)
C23 C 0.5990(7) -0.07005(18) 0.3749(3)
C24 C 0.2581(7) -0.0750(2) 0.4409(3)
C25 C 0.7082(7) 0.2262(2) 0.2227(2)
C26 C 0.5078(7) 0.25385(19) 0.2489(2)
D10 D 0.920(5) 0.1409(15) 0.232(2)
D11 D 0.835(5) 0.0238(13) 0.2915(19)
D12 D 0.234(5) 0.2305(16) 0.311(2)
D13 D 0.086(5) 0.0170(15) 0.439(2)
D14 D 0.150(6) -0.1032(17) 0.471(2)
D15 D 0.461(5) 0.3075(16) 0.234(2)
D16 D 0.796(6) 0.2568(17) 0.188(3)
D17 D 0.483(6) -0.1575(18) 0.431(2)
D18 D 0.742(6) -0.0931(18) 0.355(2)
N2 N 0.7009(4) 0.60342(14) 0.14118(17)
C14 C 0.6417(5) 0.53539(16) 0.1224(2)
C15 C 0.5617(5) 0.64178(16) 0.1843(2)
C16 C 0.3595(5) 0.61421(17) 0.2108(2)
C17 C 0.4438(5) 0.50274(16) 0.1467(2)
C18 C 0.3039(6) 0.54387(18) 0.1905(2)
C19 C 0.6223(6) 0.71324(18) 0.2062(2)
C20 C 0.7879(6) 0.49408(19) 0.0778(2)
C21 C 0.5468(7) 0.3926(2) 0.0833(3)
C22 C 0.2266(6) 0.6587(2) 0.2577(2)
C23 C 0.4010(7) 0.42995(18) 0.1251(3)
C24 C 0.7419(7) 0.4250(2) 0.0591(3)
C25 C 0.2918(7) 0.7262(2) 0.2773(2)
C26 C 0.4922(7) 0.75385(19) 0.2511(2)
D10 D 0.080(5) 0.6409(15) 0.268(2)
D11 D 0.165(5) 0.5238(13) 0.2085(19)
D12 D 0.766(5) 0.7305(16) 0.189(2)
D13 D 0.914(5) 0.5170(15) 0.061(2)
D14 D 0.850(6) 0.3968(17) 0.029(2)
D15 D 0.539(5) 0.8075(16) 0.266(2)
D16 D 0.204(6) 0.7568(17) 0.312(3)
D17 D 0.517(6) 0.3425(18) 0.069(2)
D18 D 0.258(6) 0.4069(18) 0.145(2)
N2 N 0.7009(4) 0.89658(14) 0.64118(17)
C14 C 0.6417(5) 0.96461(16) 0.6224(2)
C15 C 0.5617(5) 0.85822(16) 0.6843(2)
C16 C 0.3595(5) 0.88579(17) 0.7108(2)
C17 C 0.4438(5) 0.99726(16) 0.6467(2)
C18 C 0.3039(6) 0.95613(18) 0.6905(2)
C19 C 0.6223(6) 0.78676(18) 0.7062(2)
C20 C 0.7879(6) 1.00592(19) 0.5778(2)
C21 C 0.5468(7) 1.1074(2) 0.5833(3)
C22 C 0.2266(6) 0.8413(2) 0.7577(2)
C23 C 0.4010(7) 1.07005(18) 0.6251(3)
C24 C 0.7419(7) 1.0750(2) 0.5591(3)
C25 C 0.2918(7) 0.7738(2) 0.7773(2)
C26 C 0.4922(7) 0.74615(19) 0.7511(2)
D10 D 0.080(5) 0.8591(15) 0.768(2)
D11 D 0.165(5) 0.9762(13) 0.7085(19)
D12 D 0.766(5) 0.7695(16) 0.689(2)
D13 D 0.914(5) 0.9830(15) 0.561(2)
D14 D 0.850(6) 1.1032(17) 0.529(2)
D15 D 0.539(5) 0.6925(16) 0.766(2)
D16 D 0.204(6) 0.7432(17) 0.812(3)
D17 D 0.517(6) 1.1575(18) 0.569(2)
D18 D 0.258(6) 1.0931(18) 0.645(2)
N2 N 0.2991(4) 0.39658(14) 0.85882(17)
C14 C 0.3583(5) 0.46461(16) 0.8776(2)
C15 C 0.4383(5) 0.35822(16) 0.8157(2)
C16 C 0.6405(5) 0.38579(17) 0.7892(2)
C17 C 0.5562(5) 0.49726(16) 0.8533(2)
C18 C 0.6961(6) 0.45613(18) 0.8095(2)
C19 C 0.3777(6) 0.28676(18) 0.7938(2)
C20 C 0.2121(6) 0.50592(19) 0.9222(2)
C21 C 0.4532(7) 0.6074(2) 0.9167(3)
C22 C 0.7734(6) 0.3413(2) 0.7423(2)
C23 C 0.5990(7) 0.57005(18) 0.8749(3)
C24 C 0.2581(7) 0.5750(2) 0.9409(3)
C25 C 0.7082(7) 0.2738(2) 0.7227(2)
C26 C 0.5078(7) 0.24615(19) 0.7489(2)
D10 D 0.920(5) 0.3591(15) 0.732(2)
D11 D 0.835(5) 0.4762(13) 0.7915(19)
D12 D 0.234(5) 0.2695(16) 0.811(2)
D13 D 0.086(5) 0.4830(15) 0.939(2)
D14 D 0.150(6) 0.6032(17) 0.971(2)
D15 D 0.461(5) 0.1925(16) 0.734(2)
D16 D 0.796(6) 0.2432(17) 0.688(3)
D17 D 0.483(6) 0.6575(18) 0.931(2)
D18 D 0.742(6) 0.5931(18) 0.855(2)

#END
