
#######################################################################
#
#                 Cambridge Crystallographic Data Centre
#                                CCDC 
#
#######################################################################
#
# If this CIF has been generated from an entry in the Cambridge 
# Structural Database, then it will include bibliographic, chemical, 
# crystal, experimental, refinement or atomic coordinate data resulting 
# from the CCDC's data processing and validation procedures.
#
#######################################################################

data_ACRDIN09
_symmetry_cell_setting           monoclinic
_symmetry_space_group_name_H-M   'P 21/c'
_symmetry_Int_Tables_number      14
_space_group_name_Hall           '-P 2ybc'
loop_
_symmetry_equiv_pos_site_id
_symmetry_equiv_pos_as_xyz
1 x,y,z
2 -x,1/2+y,1/2-z
3 -x,-y,-z
4 x,1/2-y,1/2+z
_cell_length_a                   6.047(7)
_cell_length_b                   18.80(2)
_cell_length_c                   16.200(19)
_cell_angle_alpha                90
_cell_angle_beta                 95.233(13)
_cell_angle_gamma                90
_cell_volume                     1834
loop_
_atom_site_label
_atom_site_type_symbol
_atom_site_fract_x
_atom_site_fract_y
_atom_site_fract_z
N1 N 0.24473(15) 0.57581(5) 0.46149(6)
C1 C -0.07644(18) 0.52866(6) 0.37565(6)
C2 C -0.10072(18) 0.64384(6) 0.44002(7)
C3 C 0.14804(18) 0.52399(6) 0.41310(6)
C4 C 0.12435(18) 0.63437(6) 0.47477(6)
C5 C 0.2743(2) 0.46164(6) 0.39963(7)
C6 C 0.2244(2) 0.68900(6) 0.52691(7)
C7 C -0.1628(2) 0.47110(7) 0.32504(7)
C8 C -0.19750(18) 0.58956(7) 0.39092(7)
C9 C -0.2138(2) 0.70802(7) 0.45830(8)
C10 C 0.1847(2) 0.40835(7) 0.35077(8)
C11 C -0.0353(2) 0.41308(7) 0.31260(8)
C12 C 0.1094(2) 0.74873(7) 0.54310(8)
C13 C -0.1125(2) 0.75854(7) 0.50828(8)
H1 H -0.354(2) 0.5934(7) 0.3676(8)
D1 D 0.272(2) 0.3642(8) 0.3433(8)
H2 H -0.320(2) 0.4747(7) 0.3003(8)
D2 D 0.424(2) 0.4585(7) 0.4280(8)
D3 D 0.378(2) 0.6805(7) 0.5515(8)
H3 H -0.367(3) 0.7122(8) 0.4351(9)
D4 D 0.184(2) 0.7872(8) 0.5802(9)
H4 H -0.104(3) 0.3731(8) 0.2768(10)
H5 H -0.193(2) 0.8037(8) 0.5213(9)
N1 N 0.75527(15) 0.07581(5) 0.03851(6)
C1 C 1.07644(18) 0.02866(6) 0.12435(6)
C2 C 1.10072(18) 0.14384(6) 0.05998(7)
C3 C 0.85196(18) 0.02399(6) 0.08690(6)
C4 C 0.87565(18) 0.13437(6) 0.02523(6)
C5 C 0.7257(2) -0.03836(6) 0.10037(7)
C6 C 0.7756(2) 0.18900(6) -0.02691(7)
C7 C 1.1628(2) -0.02890(7) 0.17496(7)
C8 C 1.19750(18) 0.08956(7) 0.10908(7)
C9 C 1.2138(2) 0.20802(7) 0.04170(8)
C10 C 0.8153(2) -0.09165(7) 0.14923(8)
C11 C 1.0353(2) -0.08692(7) 0.18740(8)
C12 C 0.8906(2) 0.24873(7) -0.04310(8)
C13 C 1.1125(2) 0.25854(7) -0.00828(8)
H1 H 1.354(2) 0.0934(7) 0.1324(8)
D1 D 0.728(2) -0.1358(8) 0.1567(8)
H2 H 1.320(2) -0.0253(7) 0.1997(8)
D2 D 0.576(2) -0.0415(7) 0.0720(8)
D3 D 0.622(2) 0.1805(7) -0.0515(8)
H3 H 1.367(3) 0.2122(8) 0.0649(9)
D4 D 0.816(2) 0.2872(8) -0.0802(9)
H4 H 1.104(3) -0.1269(8) 0.2232(10)
H5 H 1.193(2) 0.3037(8) -0.0213(9)
N1 N 0.75527(15) 0.42419(5) 0.53851(6)
C1 C 1.07644(18) 0.47134(6) 0.62435(6)
C2 C 1.10072(18) 0.35616(6) 0.55998(7)
C3 C 0.85196(18) 0.47601(6) 0.58690(6)
C4 C 0.87565(18) 0.36563(6) 0.52523(6)
C5 C 0.7257(2) 0.53836(6) 0.60037(7)
C6 C 0.7756(2) 0.31100(6) 0.47309(7)
C7 C 1.1628(2) 0.52890(7) 0.67496(7)
C8 C 1.19750(18) 0.41044(7) 0.60908(7)
C9 C 1.2138(2) 0.29198(7) 0.54170(8)
C10 C 0.8153(2) 0.59165(7) 0.64923(8)
C11 C 1.0353(2) 0.58692(7) 0.68740(8)
C12 C 0.8906(2) 0.25127(7) 0.45690(8)
C13 C 1.1125(2) 0.24146(7) 0.49172(8)
H1 H 1.354(2) 0.4066(7) 0.6324(8)
D1 D 0.728(2) 0.6358(8) 0.6567(8)
H2 H 1.320(2) 0.5253(7) 0.6997(8)
D2 D 0.576(2) 0.5415(7) 0.5720(8)
D3 D 0.622(2) 0.3195(7) 0.4485(8)
H3 H 1.367(3) 0.2878(8) 0.5649(9)
D4 D 0.816(2) 0.2128(8) 0.4198(9)
H4 H 1.104(3) 0.6269(8) 0.7232(10)
H5 H 1.193(2) 0.1963(8) 0.4787(9)
N1 N 0.24473(15) 0.92419(5) 0.96149(6)
C1 C -0.07644(18) 0.97134(6) 0.87565(6)
C2 C -0.10072(18) 0.85616(6) 0.94002(7)
C3 C 0.14804(18) 0.97601(6) 0.91310(6)
C4 C 0.12435(18) 0.86563(6) 0.97477(6)
C5 C 0.2743(2) 1.03836(6) 0.89963(7)
C6 C 0.2244(2) 0.81100(6) 1.02691(7)
C7 C -0.1628(2) 1.02890(7) 0.82504(7)
C8 C -0.19750(18) 0.91044(7) 0.89092(7)
C9 C -0.2138(2) 0.79198(7) 0.95830(8)
C10 C 0.1847(2) 1.09165(7) 0.85077(8)
C11 C -0.0353(2) 1.08692(7) 0.81260(8)
C12 C 0.1094(2) 0.75127(7) 1.04310(8)
C13 C -0.1125(2) 0.74146(7) 1.00828(8)
H1 H -0.354(2) 0.9066(7) 0.8676(8)
D1 D 0.272(2) 1.1358(8) 0.8433(8)
H2 H -0.320(2) 1.0253(7) 0.8003(8)
D2 D 0.424(2) 1.0415(7) 0.9280(8)
D3 D 0.378(2) 0.8195(7) 1.0515(8)
H3 H -0.367(3) 0.7878(8) 0.9351(9)
D4 D 0.184(2) 0.7128(8) 1.0802(9)
H4 H -0.104(3) 1.1269(8) 0.7768(10)
H5 H -0.193(2) 0.6963(8) 1.0213(9)
N2 N 0.30058(16) 0.10337(5) 0.35917(6)
C14 C 0.35765(19) 0.03533(6) 0.37773(7)
C15 C 0.43811(18) 0.14174(6) 0.31555(7)
C16 C 0.64137(18) 0.11408(6) 0.28901(7)
C17 C 0.55664(19) 0.00274(6) 0.35347(7)
C18 C 0.69661(19) 0.04371(7) 0.30931(7)
C19 C 0.3783(2) 0.21339(7) 0.29399(8)
C20 C 0.2115(2) -0.00588(7) 0.42238(7)
C21 C 0.4537(3) -0.10768(7) 0.41687(9)
C22 C 0.7745(2) 0.15868(7) 0.24210(8)
C23 C 0.5985(2) -0.07031(7) 0.37492(8)
C24 C 0.2574(2) -0.07515(7) 0.44129(8)
C25 C 0.7101(2) 0.22616(7) 0.22229(8)
C26 C 0.5095(2) 0.25381(7) 0.24886(8)
H6 H 0.916(3) 0.1390(7) 0.2261(9)
H7 H 0.833(2) 0.0233(7) 0.2917(8)
D5 D 0.239(2) 0.2312(7) 0.3126(9)
D6 D 0.077(2) 0.0172(7) 0.4382(8)
D7 D 0.153(2) -0.1036(8) 0.4724(9)
D8 D 0.466(2) 0.3042(8) 0.2336(9)
H8 H 0.805(2) 0.2571(8) 0.1901(9)
H9 H 0.481(2) -0.1595(8) 0.4311(9)
H10 H 0.740(3) -0.0911(8) 0.3566(9)
N2 N 0.69942(16) 0.60337(5) 0.14083(6)
C14 C 0.64235(19) 0.53533(6) 0.12227(7)
C15 C 0.56189(18) 0.64174(6) 0.18445(7)
C16 C 0.35863(18) 0.61408(6) 0.21099(7)
C17 C 0.44336(19) 0.50274(6) 0.14653(7)
C18 C 0.30339(19) 0.54371(7) 0.19069(7)
C19 C 0.6217(2) 0.71339(7) 0.20601(8)
C20 C 0.7885(2) 0.49412(7) 0.07762(7)
C21 C 0.5463(3) 0.39232(7) 0.08313(9)
C22 C 0.2255(2) 0.65868(7) 0.25790(8)
C23 C 0.4015(2) 0.42969(7) 0.12508(8)
C24 C 0.7426(2) 0.42485(7) 0.05871(8)
C25 C 0.2899(2) 0.72616(7) 0.27771(8)
C26 C 0.4905(2) 0.75381(7) 0.25114(8)
H6 H 0.084(3) 0.6390(7) 0.2739(9)
H7 H 0.167(2) 0.5233(7) 0.2083(8)
D5 D 0.761(2) 0.7312(7) 0.1874(9)
D6 D 0.923(2) 0.5172(7) 0.0618(8)
D7 D 0.847(2) 0.3964(8) 0.0276(9)
D8 D 0.534(2) 0.8042(8) 0.2664(9)
H8 H 0.195(2) 0.7571(8) 0.3099(9)
H9 H 0.519(2) 0.3405(8) 0.0689(9)
H10 H 0.260(3) 0.4089(8) 0.1434(9)
N2 N 0.69942(16) 0.89663(5) 0.64083(6)
C14 C 0.64235(19) 0.96467(6) 0.62227(7)
C15 C 0.56189(18) 0.85826(6) 0.68445(7)
C16 C 0.35863(18) 0.88592(6) 0.71099(7)
C17 C 0.44336(19) 0.99726(6) 0.64653(7)
C18 C 0.30339(19) 0.95629(7) 0.69069(7)
C19 C 0.6217(2) 0.78661(7) 0.70601(8)
C20 C 0.7885(2) 1.00588(7) 0.57762(7)
C21 C 0.5463(3) 1.10768(7) 0.58313(9)
C22 C 0.2255(2) 0.84132(7) 0.75790(8)
C23 C 0.4015(2) 1.07031(7) 0.62508(8)
C24 C 0.7426(2) 1.07515(7) 0.55871(8)
C25 C 0.2899(2) 0.77384(7) 0.77771(8)
C26 C 0.4905(2) 0.74619(7) 0.75114(8)
H6 H 0.084(3) 0.8610(7) 0.7739(9)
H7 H 0.167(2) 0.9767(7) 0.7083(8)
D5 D 0.761(2) 0.7688(7) 0.6874(9)
D6 D 0.923(2) 0.9828(7) 0.5618(8)
D7 D 0.847(2) 1.1036(8) 0.5276(9)
D8 D 0.534(2) 0.6958(8) 0.7664(9)
H8 H 0.195(2) 0.7429(8) 0.8099(9)
H9 H 0.519(2) 1.1595(8) 0.5689(9)
H10 H 0.260(3) 1.0911(8) 0.6434(9)
N2 N 0.30058(16) 0.39663(5) 0.85917(6)
C14 C 0.35765(19) 0.46467(6) 0.87773(7)
C15 C 0.43811(18) 0.35826(6) 0.81555(7)
C16 C 0.64137(18) 0.38592(6) 0.78901(7)
C17 C 0.55664(19) 0.49726(6) 0.85347(7)
C18 C 0.69661(19) 0.45629(7) 0.80931(7)
C19 C 0.3783(2) 0.28661(7) 0.79399(8)
C20 C 0.2115(2) 0.50588(7) 0.92238(7)
C21 C 0.4537(3) 0.60768(7) 0.91687(9)
C22 C 0.7745(2) 0.34132(7) 0.74210(8)
C23 C 0.5985(2) 0.57031(7) 0.87492(8)
C24 C 0.2574(2) 0.57515(7) 0.94129(8)
C25 C 0.7101(2) 0.27384(7) 0.72229(8)
C26 C 0.5095(2) 0.24619(7) 0.74886(8)
H6 H 0.916(3) 0.3610(7) 0.7261(9)
H7 H 0.833(2) 0.4767(7) 0.7917(8)
D5 D 0.239(2) 0.2688(7) 0.8126(9)
D6 D 0.077(2) 0.4828(7) 0.9382(8)
D7 D 0.153(2) 0.6036(8) 0.9724(9)
D8 D 0.466(2) 0.1958(8) 0.7336(9)
H8 H 0.805(2) 0.2429(8) 0.6901(9)
H9 H 0.481(2) 0.6595(8) 0.9311(9)
H10 H 0.740(3) 0.5911(8) 0.8566(9)

#END
